[o:Set:
@hash}I"environment-version:ETTI"environment-paths;TTI"rails-env;TTI">processors:type=text/css&file_type=text/css&pipeline=self;TTI"ëfile-digest:///Users/paulelis/Desktop/Flatiron%20School/Module%202/rails-dynamic-request-readme-web-022018/app/assets/stylesheets/application.css;TTI"Åfile-digest:///Users/paulelis/Desktop/Flatiron%20School/Module%202/rails-dynamic-request-readme-web-022018/app/assets/stylesheets;TTF