I"È/Users/flatironschool/Documents/Mod%202/rails-dynamic-request-readme-web-022018/app/assets/stylesheets/application.css?type=text/css&id=4287dd92235cf58de66e78299e4a9da107efc116f778ba336c74ad30fdbde5b7:ET