I"Õ/Users/flatironschool/Documents/Mod%202/rails-dynamic-request-readme-web-022018/app/assets/javascripts/application.js?type=application/javascript&id=d130c3f484dd2572e2c9da6f80f5d16f4f00af18560e1ec99c56d5705ffab335:ET