I"â/Users/paulelis/Desktop/Flatiron%20School/Module%202/rails-dynamic-request-readme-web-022018/app/assets/javascripts/application.js?type=application/javascript&id=1da1e91efff387e698e6a22fda5e055c8d17ab43bd645f3ba894bdba8b3b856d:ET