I"Ö/Users/flatironschool/Documents/Mod%202/rails-dynamic-request-readme-web-022018/app/assets/stylesheets/application.css?type=text/css&pipeline=self&id=f7a8cf9999c0067233ff3c304bbd7e41b0ca467a8a195351d56f3abaaeb29455:ET