I"ã/Users/paulelis/Desktop/Flatiron%20School/Module%202/rails-dynamic-request-readme-web-022018/app/assets/stylesheets/application.css?type=text/css&pipeline=self&id=5b446076fe2668f9b2aa411b0a646352c40890556f4539517e546964898987b8:ET