I"ã/Users/flatironschool/Documents/Mod%202/rails-dynamic-request-readme-web-022018/app/assets/javascripts/application.js?type=application/javascript&pipeline=self&id=21c00d7cab8d32db7facb14a731d919ec4d73a9eddfc4ca86969583fc055f74b:ET