I"ð/Users/paulelis/Desktop/Flatiron%20School/Module%202/rails-dynamic-request-readme-web-022018/app/assets/javascripts/application.js?type=application/javascript&pipeline=self&id=db77051e8ca3070fbbaed5fc7b919a539e83ac9c554e0af317555e111baed14d:ET