I"Õ/Users/paulelis/Desktop/Flatiron%20School/Module%202/rails-dynamic-request-readme-web-022018/app/assets/stylesheets/application.css?type=text/css&id=856b0ca4bef061658a645b7ab7e3a023ac80c1e8d82d66e3f09a0c5206605a42:ET